/*--------------------------------*- C++ -*----------------------------------*\
  =========                 |
  \\      /  F ield         | OpenFOAM: The Open Source CFD Toolbox
   \\    /   O peration     | Website:  https://openfoam.org
    \\  /    A nd           | Version:  13
     \\/     M anipulation  |
\*---------------------------------------------------------------------------*/
FoamFile
{
    format      ascii;
    class       dictionary;
    location    "system";
    object      controlDict;
}
// * * * * * * * * * * * * * * * * * * * * * * * * * * * * * * * * * * * * * //

#include "../constant/userParameters"

regionSolvers
{
    fluid           fluid;
    solid           solid;
}

startFrom         latestTime;

startTime         0;

stopAt            endTime;

endTime           $duration;

deltaT            1.0e-04;

writeControl      adjustableRunTime;

writeInterval     $dumpInterval;
// writeInterval     0.1;

purgeWrite        0;

writeFormat       ascii;

writePrecision    6;

writeCompression  off;

timeFormat        scientific;

timePrecision     6;

runTimeModifiable true;

// Reduce diffusive effects
maxCo             0.75;

maxDeltaT         0.01;

// adjustTimeStep    $updateTimeStep;
adjustTimeStep    yes;

// ************************************************************************* //
