/*--------------------------------*- C++ -*----------------------------------*\
  =========                 |
  \\      /  F ield         | OpenFOAM: The Open Source CFD Toolbox
   \\    /   O peration     | Website:  https://openfoam.org
    \\  /    A nd           | Version:  13
     \\/     M anipulation  |
\*---------------------------------------------------------------------------*/
FoamFile
{
    format      ascii;
    class       dictionary;
    location    "system/fluid";
    object      fvSolution;
}
// * * * * * * * * * * * * * * * * * * * * * * * * * * * * * * * * * * * * * //

solvers
{
    "(rho|rhoFinal)"
    {
        // solver          diagonal;
        solver          PCG
        preconditioner  DIC;
        tolerance       1e-7;
        relTol          0;
    }

    p
    {
        solver          PBiCGStab;
        preconditioner  DIC;
        tolerance       1e-8;
        relTol          0.001;
    }

    pFinal
    {
        $p;
        relTol          0;
    }

    p_rgh
    {
        solver           GAMG;
        tolerance        1e-7;
        relTol           0.01;

        // smoother         symGaussSeidel;
        smoother         DIC;
        maxIter          100;
    }

    p_rghFinal
    {
        $p_rgh;
        relTol           0;
    }

    "(U|h|k|omega)"
    {
        solver           PBiCGStab;
        preconditioner   DILU;
        tolerance        1e-7;
        relTol           0.1;
    }

    "(U|h|k|omega)Final"
    {
        $U;
        relTol           0;
    }
}

PIMPLE
{
    // maxDeltaT                0.01;
    momentumPredictor        yes;
    nCorrectors              1;
    nNonOrthogonalCorrectors 1;
}

relaxationFactors
{
    equations
    {
        ".*" 1;
    }
}

// ************************************************************************* //
