/*--------------------------------*- C++ -*----------------------------------*\
  =========                 |
  \\      /  F ield         | OpenFOAM: The Open Source CFD Toolbox
   \\    /   O peration     | Website:  https://openfoam.org
    \\  /    A nd           | Version:  11
     \\/     M anipulation  |
\*---------------------------------------------------------------------------*/
FoamFile
{
    format      ascii;
    class       dictionary;
    location    "constant";
    object      combustionProperties;
}
// * * * * * * * * * * * * * * * * * * * * * * * * * * * * * * * * * * * * * //

// Turbulent models.
// combustionModel EDC;

// Single step and inherited.
// combustionModel singleStepCombustion;
// combustionModel FSD;
// combustionModel diffusion;
combustionModel infinitelyFastChemistry;

// Laminar and inherited.
// combustionModel laminar;
// combustionModel PaSR;

EDCCoeffs
{
    version v2016;
}

infinitelyFastChemistryCoeffs
{
    semiImplicit no;
    C            5.0;
}

PaSRCoeffs
{
    Cmix                1.0;
}

// For single step models.
reaction
{
    reaction  "C7H16 + 11O2 = 7CO2 + 8H2O";
}

// ************************************************************************* //
