/*--------------------------------*- C++ -*----------------------------------*\
  =========                 |
  \\      /  F ield         | OpenFOAM: The Open Source CFD Toolbox
   \\    /   O peration     | Website:  https://openfoam.org
    \\  /    A nd           | Version:  11
     \\/     M anipulation  |
\*---------------------------------------------------------------------------*/
FoamFile
{
    format      ascii;
    class       dictionary;
    location    "constant";
    object      combustionProperties;
}
// * * * * * * * * * * * * * * * * * * * * * * * * * * * * * * * * * * * * * //

//combustionModel EDC;
// combustionModel FSD;
// combustionModel laminar;
// combustionModel infinitelyFastChemistry;
combustionModel PaSR;

PaSRCoeffs
{
    Cmix                1.0;
}


// ************************************************************************* //
